powerflow/Codes/PF_Formulation/resultados_csv/14/3bus/ramos.csv
caso,script,branch_id,f_bus,t_bus,pf_pu,qf_pu,pt_pu,qt_pu,loss_p_pu,loss_q_pu
3bus.pwf,14,1,1,2,2.5149782210966278e-8,2.1574591810808483e-8,-2.5149781322787858e-8,-2.1574590478540854e-8,8.881784197001252e-16,1.3322676295501878e-15
3bus.pwf,14,2,1,3,0.15571402824743463,0.03026346249507899,-0.15195000758794508,-0.0266450116953491,0.003764020659489553,0.0036184507997298887
3bus.pwf,14,3,2,3,0.15571400204052732,0.030263440652122157,-0.1519499827479941,-0.026644991166481995,0.003764019292533227,0.0036184494856401628
